Version 4.1
SHEET 1 988 1368
WIRE -352 368 -400 368
WIRE -224 368 -288 368
WIRE 80 400 0 400
WIRE 208 400 144 400
WIRE -512 480 -560 480
WIRE -400 480 -400 368
WIRE -400 480 -432 480
WIRE -352 480 -400 480
WIRE -224 480 -224 368
WIRE -224 480 -272 480
WIRE -128 512 -160 512
WIRE 0 512 0 400
WIRE 0 512 -48 512
WIRE 80 512 0 512
WIRE 208 512 208 400
WIRE 208 512 160 512
WIRE 448 608 416 608
WIRE 0 624 0 512
WIRE 32 624 0 624
WIRE 608 624 512 624
WIRE 688 624 608 624
WIRE 800 624 768 624
WIRE 864 624 800 624
WIRE -400 640 -400 480
WIRE -384 640 -400 640
WIRE 208 640 208 512
WIRE 208 640 96 640
WIRE 272 640 208 640
WIRE 400 640 352 640
WIRE 448 640 400 640
WIRE 800 640 800 624
WIRE -224 656 -224 480
WIRE -224 656 -320 656
WIRE 32 656 -224 656
WIRE -864 672 -960 672
WIRE -752 672 -864 672
WIRE -528 672 -752 672
WIRE -384 672 -528 672
WIRE -352 704 -352 688
WIRE -960 720 -960 672
WIRE -864 720 -864 672
WIRE -752 720 -752 672
WIRE -528 720 -528 672
WIRE 400 736 400 640
WIRE 448 736 400 736
WIRE 608 736 608 624
WIRE 608 736 528 736
WIRE 800 736 800 704
WIRE -960 832 -960 800
WIRE -960 832 -992 832
WIRE -864 832 -864 784
WIRE -864 832 -960 832
WIRE -752 832 -752 800
WIRE -752 832 -864 832
WIRE -864 864 -864 832
WIRE -864 960 -864 928
WIRE -528 960 -528 800
WIRE -528 960 -864 960
WIRE -864 976 -864 960
WIRE -480 1072 -656 1072
WIRE -656 1152 -656 1072
WIRE -608 1152 -656 1152
WIRE -480 1168 -480 1072
WIRE -480 1168 -544 1168
WIRE -464 1168 -480 1168
WIRE -352 1168 -384 1168
WIRE -256 1168 -352 1168
WIRE -880 1184 -944 1184
WIRE -768 1184 -800 1184
WIRE -656 1184 -768 1184
WIRE -608 1184 -656 1184
WIRE -352 1216 -352 1168
WIRE -768 1232 -768 1184
WIRE -656 1232 -656 1184
WIRE -768 1328 -768 1296
WIRE -656 1328 -656 1312
WIRE -352 1328 -352 1280
FLAG -352 624 5V
FLAG -352 704 0
FLAG -864 976 0
FLAG -560 480 0
FLAG 864 624 Out
FLAG 64 672 0
FLAG 64 608 5V
FLAG 480 592 5V
FLAG 480 656 0
FLAG -576 1136 5V
FLAG -576 1200 0
FLAG -800 544 0
FLAG -800 464 5V
FLAG -944 1184 5V
FLAG -768 1328 0
FLAG -656 1328 0
FLAG -352 1328 0
FLAG -256 1168 Vbias
FLAG -160 512 0
FLAG 416 608 Vbias
FLAG 800 736 0
FLAG -992 832 5V
SYMBOL res -768 704 R0
SYMATTR InstName R1
SYMATTR Value 200Meg
SYMBOL cap -880 720 R0
SYMATTR InstName C1
SYMATTR Value 4p
SYMBOL current -960 800 R180
WINDOW 0 24 80 Left 2
WINDOW 3 24 0 Left 2
SYMATTR InstName I1
SYMATTR Value 10n
SYMBOL cap -880 864 R0
SYMATTR InstName C2
SYMATTR Value 100n
SYMBOL res -544 704 R0
SYMATTR InstName R2
SYMATTR Value 100k
SYMBOL OpAmps\\UniversalOpAmp2 -352 656 R0
SYMATTR InstName U1
SYMBOL res -256 464 R90
WINDOW 0 0 56 VBottom 2
WINDOW 3 32 56 VTop 2
SYMATTR InstName R3
SYMATTR Value 2k
SYMBOL res -416 464 R90
WINDOW 0 0 56 VBottom 2
WINDOW 3 32 56 VTop 2
SYMATTR InstName R4
SYMATTR Value 1k
SYMBOL cap -288 352 R90
WINDOW 0 0 32 VBottom 2
WINDOW 3 32 32 VTop 2
SYMATTR InstName C3
SYMATTR Value 56p
SYMBOL OpAmps\\UniversalOpAmp2 64 640 R0
SYMATTR InstName U2
SYMBOL OpAmps\\UniversalOpAmp2 480 624 R0
SYMATTR InstName U3
SYMBOL OpAmps\\UniversalOpAmp2 -576 1168 R0
SYMATTR InstName U4
SYMBOL voltage -800 448 R0
WINDOW 123 0 0 Left 0
WINDOW 39 0 0 Left 0
SYMATTR InstName V1
SYMATTR Value 5
SYMBOL res -784 1168 R90
WINDOW 0 0 56 VBottom 2
WINDOW 3 32 56 VTop 2
SYMATTR InstName R5
SYMATTR Value 10k
SYMBOL res -640 1328 R180
WINDOW 0 36 76 Left 2
WINDOW 3 36 40 Left 2
SYMATTR InstName R6
SYMATTR Value 8.2k
SYMBOL cap -784 1232 R0
SYMATTR InstName C4
SYMATTR Value 1.5n
SYMBOL cap -368 1216 R0
SYMATTR InstName C5
SYMATTR Value 100n
SYMBOL res -368 1152 R90
WINDOW 0 0 56 VBottom 2
WINDOW 3 32 56 VTop 2
SYMATTR InstName R7
SYMATTR Value 10
SYMBOL res -32 496 R90
WINDOW 0 0 56 VBottom 2
WINDOW 3 32 56 VTop 2
SYMATTR InstName R8
SYMATTR Value 1k
SYMBOL res 176 496 R90
WINDOW 0 0 56 VBottom 2
WINDOW 3 32 56 VTop 2
SYMATTR InstName R9
SYMATTR Value 20k
SYMBOL cap 144 384 R90
WINDOW 0 0 32 VBottom 2
WINDOW 3 32 32 VTop 2
SYMATTR InstName C6
SYMATTR Value 12p
SYMBOL res 544 720 R90
WINDOW 0 0 56 VBottom 2
WINDOW 3 32 56 VTop 2
SYMATTR InstName R10
SYMATTR Value 10k
SYMBOL res 368 624 R90
WINDOW 0 0 56 VBottom 2
WINDOW 3 32 56 VTop 2
SYMATTR InstName R11
SYMATTR Value 1k
SYMBOL res 784 608 R90
WINDOW 0 0 56 VBottom 2
WINDOW 3 32 56 VTop 2
SYMATTR InstName R12
SYMATTR Value 82k
SYMBOL cap 784 640 R0
SYMATTR InstName C7
SYMATTR Value 10n
TEXT -488 136 Left 2 ;Photodiode into a current to volatge conversion into an amplyfying/filtering\ninto another amplyfying/filtering into a comparator and then more filtering\nVbias to go into comparator
TEXT -488 64 Left 2 !.tran 0 1 0 1m
TEXT -488 40 Left 2 ;Photodiode detecting cct
