Version 4.1
SHEET 1 880 680
WIRE 64 272 -32 272
WIRE 176 272 64 272
WIRE 400 272 176 272
WIRE -32 320 -32 272
WIRE 64 320 64 272
WIRE 176 320 176 272
WIRE 400 320 400 272
WIRE -32 432 -32 400
WIRE 64 432 64 384
WIRE 64 432 -32 432
WIRE 176 432 176 400
WIRE 176 432 64 432
WIRE 64 464 64 432
WIRE 64 560 64 528
WIRE 400 560 400 400
WIRE 400 560 64 560
WIRE 64 592 64 560
FLAG 64 592 0
SYMBOL res 160 304 R0
SYMATTR InstName R1
SYMATTR Value 200Meg
SYMBOL cap 48 320 R0
SYMATTR InstName C1
SYMATTR Value 4p
SYMBOL current -32 400 R180
WINDOW 0 24 80 Left 2
WINDOW 3 24 0 Left 2
SYMATTR InstName I1
SYMATTR Value 0.1”
SYMBOL cap 48 464 R0
SYMATTR InstName C2
SYMATTR Value 100n
SYMBOL res 384 304 R0
SYMATTR InstName R2
SYMATTR Value 100k
TEXT -56 56 Left 2 ;Photodiode into amplifying cct then into filtering cct\nto get DC value to be input into a microcontroller
TEXT -104 232 Left 2 ;Simple copy of 310 project to get current into voltage
